data_NbSe2
_audit_creation_date              2022-08-18
_audit_creation_method            'Materials Studio'
_symmetry_space_group_name_H-M    'P1'
_symmetry_Int_Tables_number       1
_symmetry_cell_setting            triclinic
loop_
_symmetry_equiv_pos_as_xyz
  x,y,z
_cell_length_a                    3.4850
_cell_length_b                    3.4850
_cell_length_c                    13.6327
_cell_angle_alpha                 90.0000
_cell_angle_beta                  90.0000
_cell_angle_gamma                 120.0000
loop_
_atom_site_label
_atom_site_type_symbol
_atom_site_fract_x
_atom_site_fract_y
_atom_site_fract_z
_atom_site_U_iso_or_equiv
_atom_site_adp_type
_atom_site_occupancy
Nb1    Nb    0.00000   0.00000   0.25000   0.00000  Uiso   1.00
Nb2    Nb    0.00000   0.00000  -0.25000   0.00000  Uiso   1.00
Se1    Se    0.66667  -0.66667   0.12634   0.00000  Uiso   1.00
Se2    Se   -0.66667   0.66667  -0.12634   0.00000  Uiso   1.00
Se3    Se   -0.33334   0.33333  -0.37366   0.00000  Uiso   1.00
Se4    Se    0.33333  -0.33334   0.37366   0.00000  Uiso   1.00
